STAAD SPACE
START JOB INFORMATION
ENGINEER DATE 06-Mar-24
END JOB INFORMATION
INPUT WIDTH 79
UNIT METER KN
JOINT COORDINATES
1 0 0 1.4; 2 0 0 7.40002; 3 0 0 10.4; 4 0 0 16.4; 5 0 0 19.4;
6 3.00001 0 7.40002; 7 3.00001 0 10.4; 8 3.00001 0 13.4; 9 3.00001 0 16.4;
10 3.00001 0 19.4; 11 6.00001 0 1.4; 12 6.00001 0 3.00001;
13 6.00001 0 7.40002; 14 6.00001 0 19.4; 15 9.00002 0 1.4;
16 9.00002 0 3.00001; 17 9.00002 0 7.40002; 18 9.00002 0 13.4;
19 9.00002 0 19.4; 20 12 0 1.4; 21 12 0 3.00001; 22 12 0 7.40002; 23 12 0 13.4;
24 12 0 19.4; 25 15 0 1.4; 26 15 0 3.00001; 27 15 0 7.40002; 28 15 0 19.4;
29 18 0 7.40002; 30 18 0 10.4; 31 18 0 13.4; 32 18 0 16.4; 33 18 0 19.4;
34 21 0 1.4; 35 21 0 7.40002; 36 21 0 10.4; 37 21 0 16.4; 38 21 0 19.4;
39 24 0 7.40002; 40 24 0 10.4; 41 24 0 13.4; 42 24 0 16.4; 43 24 0 19.4;
44 27.0001 0 1.4; 45 27.0001 0 3.00001; 46 27.0001 0 7.40002;
47 27.0001 0 19.4; 48 30.0001 0 1.4; 49 30 0 3.00001; 50 30.0001 0 7.40002;
51 30.0001 0 13.4; 52 30.0001 0 19.4; 53 33.0001 0 1.4; 54 33.0001 0 3.00001;
55 33.0001 0 7.40002; 56 33.0001 0 13.4; 57 33.0001 0 19.4; 58 36.0001 0 1.4;
59 36.0001 0 3.00001; 60 36.0001 0 7.40002; 61 36.0001 0 19.4;
62 39.0001 0 7.40002; 63 39.0001 0 10.4; 64 39.0001 0 13.4; 65 39.0001 0 16.4;
66 39.0001 0 19.4; 67 42.0001 0 1.4; 68 42.0001 0 7.40002; 69 42.0001 0 10.4;
70 42.0001 0 16.4; 71 42.0001 0 19.4; 72 0 -2.7 1.4; 73 0 -2.7 7.40002;
74 0 -2.7 10.4; 75 0 -2.7 16.4; 76 0 -2.7 19.4; 77 3.00001 -2.7 7.40002;
78 3.00001 -2.7 10.4; 79 3.00001 -2.7 13.4; 80 3.00001 -2.7 16.4;
# ... 232 like lines cut
MEMBER INCIDENCES
1 1 2; 2 2 3; 3 4 5; 4 6 7; 5 7 8; 6 8 9; 7 9 10; 8 11 12; 9 12 13; 10 15 16;
11 16 17; 12 17 18; 13 18 19; 14 1 11; 15 11 15; 16 12 16; 17 2 6; 18 6 13;
19 13 17; 20 3 7; 21 8 18; 22 4 9; 23 5 10; 24 10 14; 25 14 19; 26 20 21;
27 21 22; 28 22 23; 29 23 24; 30 25 26; 31 26 27; 32 15 20; 33 19 24; 34 29 30;
35 30 31; 36 31 32; 37 32 33; 38 20 25; 39 21 26; 40 22 27; 41 27 29; 42 24 28;
43 28 33; 44 23 31; 45 34 35; 46 35 36; 47 37 38; 48 25 34; 49 29 35; 50 30 36;
51 32 37; 52 33 38; 53 35 39; 54 36 40; 55 39 40; 56 40 41; 57 41 42; 58 42 43;
59 37 42; 60 38 43; 61 44 45; 62 45 46; 63 34 44; 64 39 46; 65 44 48; 66 48 49;
67 49 50; 68 50 51; 69 51 52; 70 45 49; 71 46 50; 72 41 51; 73 43 47; 74 47 52;
75 53 54; 76 54 55; 77 55 56; 78 56 57; 79 48 53; 80 52 57; 81 58 59; 82 59 60;
83 53 58; 84 54 59; 85 55 60; 86 62 63; 87 63 64; 88 64 65; 89 65 66; 90 60 62;
91 56 64; 92 57 61; 93 61 66; 94 67 68; 95 68 69; 96 70 71; 97 58 67; 98 62 68;
99 63 69; 100 65 70; 101 66 71; 102 18 23; 103 17 22; 104 50 55; 105 51 56;
106 1 72; 107 2 73; 108 3 74; 109 4 75; 110 5 76; 112 7 78; 113 8 79; 114 9 80;
115 10 81; 116 11 82; 117 12 83; 118 13 84; 119 14 85; 120 15 86; 121 16 87;
122 17 88; 123 18 89; 124 19 90; 125 20 91; 126 21 92; 127 22 93; 128 23 94;
129 24 95; 130 25 96; 131 26 97; 132 27 98; 133 28 99; 135 30 101; 136 31 102;
137 32 103; 138 33 104; 139 34 105; 140 35 106; 141 36 107; 142 37 108;
143 38 109; 145 40 111; 146 41 112; 147 42 113; 148 43 114; 149 44 115;
150 45 116; 151 46 117; 152 47 118; 153 48 119; 154 49 120; 155 50 121;
# ... 323 like lines cut
ELEMENT INCIDENCES SHELL
2042 1 2 13 11; 2043 2 3 7 6; 2044 4 5 10 9; 2045 8 18 17 6; 2046 10 19 18 8;
2047 11 12 16 15; 2048 12 13 17 16; 2049 17 18 23 22; 2050 20 21 26 25;
2051 21 22 27 26; 2052 22 23 31 29; 2053 23 24 33 31; 2054 27 35 34 25;
2055 29 30 36 35; 2056 34 35 46 44; 2057 35 36 40 39; 2058 37 38 43 42;
2059 41 51 50 39; 2060 43 52 51 41; 2061 44 45 49 48; 2062 45 46 50 49;
2063 50 51 56 55; 2064 53 54 59 58; 2065 54 55 60 59; 2066 55 56 64 62;
2067 56 57 66 64; 2068 60 68 67 58; 2069 62 63 69 68; 2070 65 66 71 70;
2071 72 73 84 82; 2072 73 74 78 77; 2073 75 76 81 80; 2074 79 89 88 77;
2075 81 90 89 79; 2076 82 83 87 86; 2077 83 84 88 87; 2078 88 89 94 93;
2079 91 92 97 96; 2080 92 93 98 97; 2081 93 94 102 100; 2082 94 95 104 102;
2083 98 106 105 96; 2084 100 101 107 106; 2085 105 106 117 115;
2086 106 107 111 110; 2087 108 109 114 113; 2088 112 122 121 110;
2089 114 123 122 112; 2090 115 116 120 119; 2091 116 117 121 120;
2092 121 122 127 126; 2093 124 125 130 129; 2094 125 126 131 130;
2095 126 127 135 133; 2096 127 128 137 135; 2097 131 139 138 129;
2098 133 134 140 139; 2099 136 137 142 141; 2100 214 215 226 224;
2101 215 216 220 219; 2102 217 218 223 222; 2103 221 231 230 219;
2104 223 232 231 221; 2105 224 225 229 228; 2106 225 226 230 229;
2107 230 231 236 235; 2108 233 234 239 238; 2109 234 235 240 239;
2110 235 236 244 242; 2111 236 237 246 244; 2112 240 248 247 238;
# ... 87 like lines cut
SURFACE INCIDENCE
834 829 190 195 SURFACE 1 
835 834 195 196 SURFACE 2 
830 829 190 191 SURFACE 3 
802 801 162 163 SURFACE 4 
801 796 157 162 SURFACE 5 
797 796 157 158 SURFACE 6 
172 811 813 174 SURFACE 7 
182 821 823 184 SURFACE 8 
151 790 788 149 SURFACE 9 
150 789 788 149 SURFACE 10 
207 846 845 206 SURFACE 11 
206 845 844 205 SURFACE 12 
ELEMENT PROPERTY
2042 TO 2372 THICKNESS 0.195
DEFINE MATERIAL START
ISOTROPIC CONCRETE
E 2.17185e+007
POISSON 0.17
DENSITY 23.5616
ALPHA 1e-005
DAMP 0.05
TYPE CONCRETE
STRENGTH FCU 27579
END DEFINE MATERIAL
SURFACE PROPERTY
1 TO 12 THICKNESS 0.25
CONSTANTS
MATERIAL CONCRETE ALL
SURFACE CONSTANTS
MATERIAL CONCRETE ALL
MEMBER PROPERTY AMERICAN
106 TO 110 112 TO 133 135 TO 143 145 TO 166 168 TO 176 282 TO 286 288 TO 309 -
311 TO 319 321 TO 342 344 TO 352 458 TO 462 464 TO 485 487 TO 495 -
497 TO 518 520 TO 528 634 TO 638 640 TO 661 663 TO 671 673 TO 694 -
696 TO 704 810 TO 814 816 TO 837 839 TO 847 849 TO 870 872 TO 880 -
986 TO 990 992 TO 1013 1015 TO 1023 1025 TO 1046 1048 TO 1056 1162 TO 1166 -
1168 TO 1189 1191 TO 1199 1201 TO 1222 1224 TO 1232 1338 TO 1342 -
1344 TO 1365 1367 TO 1375 1377 TO 1398 1400 TO 1408 PRIS YD 0.75 ZD 0.4
MEMBER PROPERTY AMERICAN
1514 TO 1518 1520 TO 1541 1543 TO 1551 1553 TO 1574 1576 TO 1584 1690 TO 1694 -
1696 TO 1717 1719 TO 1727 1729 TO 1750 1752 TO 1760 1866 TO 1870 -
1872 TO 1893 1895 TO 1903 1905 TO 1926 1928 TO 1936 PRIS YD 0.6 ZD 0.3
1 TO 105 177 TO 281 529 TO 633 705 TO 809 881 TO 985 1057 TO 1161 -
1233 TO 1337 1409 TO 1513 1585 TO 1689 1761 TO 1865 1937 TO 2040 -
2041 PRIS YD 0.5 ZD 0.25
SUPPORTS
143 TO 147 149 TO 170 172 TO 180 182 TO 203 205 TO 213 FIXED
DEFINE WIND LOAD
TYPE 1 WIND 1
INT 0.96 0.96 0.96 1.41135 1.815 HEIG  10  15  20  30  50
EXP 1 JOINT 1 TO 147 149 TO 170 172 TO 180 182 TO 203 205 TO 852
DEFINE 1893 LOAD
ZONE 0.36 RF 5 I 1 SS 1 ST 1 DM 0.05
SELFWEIGHT 1 
LOAD 7 LOADTYPE Seismic  TITLE EQ +X
1893 LOAD X 1
LOAD 8 LOADTYPE Seismic  TITLE EQ -X
1893 LOAD X -1
LOAD 9 LOADTYPE Seismic  TITLE EQ +Z
1893 LOAD Z 1
LOAD 10 LOADTYPE Seismic  TITLE EQ -Z
1893 LOAD Z -1
LOAD 1 LOADTYPE Dead  TITLE DL
SELFWEIGHT Y -1 LIST 1 TO 110 112 TO 133 135 TO 143 145 TO 166 168 TO 286 -
288 TO 309 311 TO 319 321 TO 342 344 TO 352 458 TO 462 464 TO 485 -
487 TO 495 497 TO 518 520 TO 638 640 TO 661 663 TO 671 673 TO 694 -
696 TO 814 816 TO 837 839 TO 847 849 TO 870 872 TO 990 992 TO 1013 -
1015 TO 1023 1025 TO 1046 1048 TO 1166 1168 TO 1189 1191 TO 1199 -
1201 TO 1222 1224 TO 1342 1344 TO 1365 1367 TO 1375 1377 TO 1398 -
1400 TO 1518 1520 TO 1541 1543 TO 1551 1553 TO 1574 1576 TO 1694 -
1696 TO 1717 1719 TO 1727 1729 TO 1750 1752 TO 1870 1872 TO 1893 -
1895 TO 1903 1905 TO 1926 1928 TO 2371
FLOOR LOAD
YRANGE -2.7 30.6 FLOAD -4.875 GY
MEMBER LOAD
1937 TO 1939 1941 1942 1950 1951 1956 1958 TO 1961 1968 1969 1971 1972 1974 -
1978 1979 1984 1986 TO 1988 1990 1992 1993 1995 1996 1999 2001 2009 2010 -
2015 2016 2019 2023 2024 2028 TO 2033 2035 TO 2037 UNI GY -8.25
ELEMENT LOAD
2345 2347 2348 2371 PR GY -10
MEMBER LOAD
1 TO 3 5 6 10 TO 15 20 22 TO 29 32 33 35 36 38 42 43 45 TO 48 50 TO 52 54 -
56 57 59 60 63 65 TO 69 73 TO 80 83 87 88 92 TO 97 99 TO 101 177 TO 179 181 -
182 186 TO 191 196 198 TO 205 208 209 211 212 214 218 219 221 TO 224 226 -
227 TO 228 230 232 233 235 236 239 241 TO 245 249 TO 256 259 263 264 -
268 TO 273 275 TO 277 529 TO 531 533 534 538 TO 543 548 550 TO 557 560 561 -
563 564 566 570 571 573 TO 576 578 TO 580 582 584 585 587 588 591 -
593 TO 597 601 TO 608 611 615 616 620 TO 625 627 TO 629 705 TO 707 709 710 -
714 TO 719 724 726 TO 733 736 737 739 740 742 746 747 749 TO 752 754 TO 756 -
758 760 761 763 764 767 769 TO 773 777 TO 784 787 791 792 796 TO 801 803 -
804 TO 805 881 TO 883 885 886 890 TO 895 900 902 TO 909 912 913 915 916 918 -
922 923 925 TO 928 930 TO 932 934 936 937 939 940 943 945 TO 949 953 TO 960 -
963 967 968 972 TO 977 979 TO 981 1057 TO 1059 1061 1062 1066 TO 1071 1076 -
1078 TO 1085 1088 1089 1091 1092 1094 1098 1099 1101 TO 1104 1106 TO 1108 -
1110 1112 1113 1115 1116 1119 1121 TO 1125 1129 TO 1136 1139 1143 1144 1148 -
1149 TO 1153 1155 TO 1157 1233 TO 1235 1237 UNI GY -14.8775
1238 1242 TO 1247 1252 1254 TO 1261 1264 1265 1267 1268 1270 1274 1275 1277 -
1278 TO 1280 1282 TO 1284 1286 1288 1289 1291 1292 1295 1297 TO 1301 1305 -
1306 TO 1312 1315 1319 1320 1324 TO 1329 1331 TO 1333 1409 TO 1411 1413 1414 -
1418 TO 1423 1428 1430 TO 1437 1440 1441 1443 1444 1446 1450 1451 -
1453 TO 1456 1458 TO 1460 1462 1464 1465 1467 1468 1471 1473 TO 1477 1481 -
1482 TO 1488 1491 1495 1496 1500 TO 1505 1507 TO 1509 1585 TO 1587 1589 1590 -
1594 TO 1599 1604 1606 TO 1613 1616 1617 1619 1620 1622 1626 1627 -
1629 TO 1632 1634 TO 1636 1638 1640 1641 1643 1644 1647 1649 TO 1653 1657 -
1658 TO 1664 1667 1671 1672 1676 TO 1681 1683 TO 1685 1761 TO 1763 1765 1766 -
1770 TO 1775 1780 1782 TO 1789 1792 1793 1795 1796 1798 1802 1803 -
1805 TO 1808 1810 TO 1812 1814 1816 1817 1819 1820 1823 1825 TO 1829 1833 -
1834 TO 1840 1843 1847 1848 1852 TO 1857 1859 TO 1861 UNI GY -14.8775
4 7 TO 9 16 TO 19 21 30 31 34 37 39 TO 41 44 49 53 55 58 61 62 64 70 72 81 -
82 84 TO 86 89 TO 91 98 180 183 TO 185 192 TO 195 197 206 207 210 213 215 -
216 TO 217 220 225 229 231 234 237 238 240 246 248 257 258 260 TO 262 265 -
266 TO 267 274 532 535 TO 537 544 TO 547 549 558 559 562 565 567 TO 569 572 -
577 581 583 586 589 590 592 598 600 609 610 612 TO 614 617 TO 619 626 708 -
711 TO 713 720 TO 723 725 734 735 738 741 743 TO 745 748 753 757 759 762 -
765 766 768 774 776 785 786 788 TO 790 793 TO 795 802 884 887 TO 889 896 -
897 TO 899 901 910 911 914 917 919 TO 921 924 929 933 935 938 941 942 944 -
950 952 961 962 964 TO 966 969 TO 971 978 1060 1063 TO 1065 1072 TO 1075 -
1077 1086 1087 1090 1093 1095 TO 1097 1100 1105 1109 1111 1114 1117 1118 -
1120 1126 1128 1137 1138 1140 TO 1142 1145 TO 1147 1154 1236 1239 TO 1241 -
1248 TO 1251 1253 1262 1263 1266 1269 1271 TO 1273 1276 1281 1285 1287 1290 -
1293 1294 1296 1302 1304 1313 1314 1316 TO 1318 1321 TO 1323 1330 1412 1415 -
1416 TO 1417 1424 TO 1427 1429 1438 1439 1442 1445 1447 TO 1449 1452 1457 -
1461 1463 1466 1469 1470 1472 1478 1480 1489 1490 1492 TO 1494 1497 TO 1499 -
1506 1588 1591 TO 1593 1600 TO 1603 1605 UNI GY -8.9265
1614 1615 1618 1621 1623 TO 1625 1628 1633 1637 1639 1642 1645 1646 1648 1654 -
1656 1665 1666 1668 TO 1670 1673 TO 1675 1682 1764 1767 TO 1769 1776 TO 1779 -
1781 1790 1791 1794 1797 1799 TO 1801 1804 1809 1813 1815 1818 1821 1822 -
1824 1830 1832 1841 1842 1844 TO 1846 1849 TO 1851 1858 UNI GY -8.9265
FLOOR LOAD
YRANGE -2.7 27.2 FLOAD -1.1 GY
YRANGE 30.6 30.6 FLOAD -0.5 GY
LOAD 2 LOADTYPE Live REDUCIBLE TITLE LL
FLOOR LOAD
YRANGE -2.7 27.2 FLOAD -3 GY
YRANGE 30.6 30.6 FLOAD -1.5 GY
LOAD 3 LOADTYPE Wind  TITLE WL +X
WIND LOAD X 1 TYPE 1
LOAD 4 LOADTYPE Wind  TITLE WL -X
WIND LOAD X -1 TYPE 1
LOAD 5 LOADTYPE Wind  TITLE WL +Z
WIND LOAD Z 1 TYPE 1
LOAD 6 LOADTYPE Wind  TITLE WL -Z
WIND LOAD Z -1 TYPE 1
LOAD COMB 11 1.5 ( DL+LL)
1 1.5 2 1.5 
LOAD COMB 12 1.5 (DL + EQX)
1 1.5 7 1.5 
LOAD COMB 13 1.5 (DL + EQZ)
1 1.5 9 1.5 
LOAD COMB 14 1.5 (DL - EQX)
1 1.5 8 1.5 
LOAD COMB 15 1.5 (DL - EQZ)
1 1.5 10 1.5 
LOAD COMB 16 1.2 (DL+LL+EQX)
1 1.2 2 1.2 7 1.2 
LOAD COMB 17 1.2 ( DL + LL - EQX)
1 1.2 2 1.2 8 1.2 
LOAD COMB 18 1.2 ( DL + LL + EQZ)
1 1.2 2 1.2 9 1.2 
LOAD COMB 19 1.2 ( DL + LL - EQZ )
1 1.2 2 1.2 10 1.2 
LOAD COMB 20 0.9DL + 1.5 EQX
1 0.9 7 1.5 
LOAD COMB 21 0.9DL - 1.5 EQX
1 0.9 8 1.5 
LOAD COMB 22 0,9 DL + 1.5 EQZ
1 0.9 9 1.5 
LOAD COMB 23 0.9 DL - 1.5 EQZ
1 0.9 10 1.5 
LOAD COMB 24 1.5DL + 1.5 EQX + 0.3 EQZ
1 1.5 7 1.5 9 0.3 
LOAD COMB 25 1.5 DL -1.5 EQX + 0.3 EQZ
1 1.5 7 1.5 9 0.3 
LOAD COMB 26 1.5 DL + 1.5 EQX - 0.3 EQZ
1 1.5 7 1.5 10 0.3 
LOAD COMB 27 1.5 DL -1.5 EQX -0.3 EQZ
1 1.5 8 1.5 10 0.3 
LOAD COMB 28 1.5 DL + 1.5 EQZ + 0.3 EQX
1 1.5 7 0.3 9 1.5 
LOAD COMB 29 1.5 DL - 1.5 EQZ + 0.3 EQX
1 1.5 7 0.3 10 1.5 
LOAD COMB 30 1.5 DL + 1.5 EQZ - 0.3 EQX
1 1.5 8 0.3 9 1.5 
LOAD COMB 31 1.5 DL - 1.5 EQZ - 0.3 EQX
1 1.5 8 0.3 10 1.5 
LOAD COMB 32 1.5 ( DL + WLX )
1 1.5 3 1.5 
LOAD COMB 33 1.5 ( DL - WLX )
1 1.5 4 1.5 
LOAD COMB 34 1.5 ( DL + WLZ )
1 1.5 5 1.5 
LOAD COMB 35 1.5 ( DL - WLZ )
1 1.5 6 1.5 
LOAD COMB 36 1.2 ( DL + LL + WLX)
1 1.2 2 1.2 3 1.2 
LOAD COMB 37 1.2 ( DL + LL - WLX)
1 1.2 2 1.2 4 1.2 
LOAD COMB 38 1.2 ( DL + LL + WLZ)
1 1.2 2 1.2 5 1.2 
LOAD COMB 39 1.2 ( DL + LL - WLZ)
1 1.2 2 1.2 6 1.2 
LOAD COMB 40 0.9 DL + 1.5 WLX
1 0.9 3 1.5 
LOAD COMB 41 0.9 DL - 1.5 WLX
1 0.9 4 1.5 
LOAD COMB 42 0.9 DL + 1.5 WLZ
1 0.9 5 1.5 
LOAD COMB 43 0.9 DL - 1.5 WLZ
1 0.9 6 1.5 
LOAD COMB 44 1.5 DL + 1.5 WLX + 0.3 WLZ
1 1.5 3 1.5 5 0.3 
LOAD COMB 45 1.5 DL - 1.5 WLX + 0.3 WLZ
1 1.5 4 1.5 5 0.3 
LOAD COMB 46 1.5 DL + 1.5 WLX - 0.3 WLZ
1 1.5 3 1.5 6 0.3 
LOAD COMB 47 1.5 DL - 1.5 WLX - 0.3 WLZ
1 1.5 4 1.5 6 0.3 
LOAD COMB 48 1.5 DL + 1.5 WLZ + 0.3 WLX
1 1.5 5 1.5 3 0.3 
LOAD COMB 49 1.5 DL - 1.5 WLZ + 0.3 WLX
1 1.5 6 1.5 3 0.3 
LOAD COMB 50 1.5 DL + 1.5 WLZ - 0.3 WLX
1 1.5 5 1.5 4 0.3 
LOAD COMB 51 1.5 DL - 1.5 WLZ - 0.3 WLX
1 1.5 6 1.5 4 0.3 
PERFORM ANALYSIS
START CONCRETE DESIGN
CODE INDIAN
FC 30000 ALL
FYMAIN 500000 ALL
FYSEC 500000 ALL
MAXSEC 12 ALL
MAXMAIN 20 ALL
DESIGN BEAM 1 TO 105 177 TO 281 529 TO 633 705 TO 809 881 TO 985 1057 TO 1161 -
1233 TO 1337 1409 TO 1513 1585 TO 1689 1761 TO 1865 1937 TO 2041
DESIGN COLUMN 106 TO 110 112 TO 133 135 TO 143 145 TO 166 168 TO 176 -
282 TO 286 288 TO 309 311 TO 319 321 TO 342 344 TO 352 458 TO 462 -
464 TO 485 487 TO 495 497 TO 518 520 TO 528 634 TO 638 640 TO 661 -
663 TO 671 673 TO 694 696 TO 704 810 TO 814 816 TO 837 839 TO 847 -
849 TO 870 872 TO 880 986 TO 990 992 TO 1013 1015 TO 1023 1025 TO 1046 1048 -
1049 TO 1056 1162 TO 1166 1168 TO 1189 1191 TO 1199 1201 TO 1222 1224 TO 1232 -
1338 TO 1342 1344 TO 1365 1367 TO 1375 1377 TO 1398 1400 TO 1408 -
1514 TO 1518 1520 TO 1541 1543 TO 1551 1553 TO 1574 1576 TO 1584 -
1690 TO 1694 1696 TO 1717 1719 TO 1727 1729 TO 1750 1752 TO 1760 -
1866 TO 1870 1872 TO 1893 1895 TO 1903 1905 TO 1926 1928 TO 1936
DESIGN ELEMENT 2042 TO 2372
CONCRETE TAKE
END CONCRETE DESIGN
FINISH
